resultados/_temp_alt1_1p00/LineSummary.csv
line,maxCurrentA,normAmps,maxLoadingPct,meanLoadingPct,overloadHours
rbt_1607347,95.11612969641475,124.95,76.12335309837114,26.301596568564538,0
sbt_7584,95.11613960267894,163.8,58.06846129589679,20.06339898544649,0
sbt_22840,95.11613506805537,163.8,58.06845852750633,20.063398874341303,0
rbt_630758,31.600929950964783,76.65,41.227566798388494,17.134914508306895,0
rbt_637576,24.915072142456427,61.95,40.218034128258964,14.458738352496987,0
rbt_606147,25.62347785485172,76.65,33.42919485303551,12.229288887278265,0
rbt_632607,40.798830565696704,124.95,32.652125302678435,15.358408700066724,0
rbt_637918,17.930617513427933,61.95,28.943692515622168,11.127425861747044,0
rbt_1130761,25.380596373066705,90.3,28.10697272764862,13.226014437090056,0
rbt_1607350,22.130054467812265,90.3,24.507258546857436,8.72532819815412,0
rbt_605836,21.546726418177485,90.3,23.861269566088026,11.237081607814739,0
rbt_637360,14.723638647072438,61.95,23.76697118171499,11.166144268206898,0
rbt_606126,13.628603860768942,61.95,21.999360550070932,7.756447461519113,0
rbt_1633671,13.465529823662699,61.95,21.73612562334576,9.737433707573624,0
rbt_3405844,18.992214330349437,90.3,21.032352525303917,7.212096698154177,0
rbt_626476,12.727180439163176,61.95,20.544278352160088,9.664940250100125,0
rbt_606143,14.945300113877973,76.65,19.498108432978437,6.8406439567805855,0
rbt_3435739,13.54050484549114,76.65,17.66536835680514,7.9319070458156995,0
rbt_635862,10.802114019502023,61.95,17.43682650444233,5.951769090535811,0
rbt_605816,10.292886770526334,61.95,16.614829330954535,6.139864294441009,0
rbt_1627323,12.526268398520479,76.65,16.342163598852547,7.687751347632557,0
sbt_34378,20.565446184658146,128.1,16.054212478265534,7.87640285581309,0
sbt_34379,20.50123678843924,128.1,16.0040880471813,7.763334897309224,0
rbt_637397,9.767140756115058,61.95,15.766167483640125,7.410080943482278,0
sbt_24791,25.623499201908757,163.8,15.6431619059272,5.722680702622057,0
sbt_3174,25.623490307399276,163.8,15.643156475823734,5.722682317803257,0
rbt_609688,11.268029912365133,76.65,14.700626108760773,5.271819280693136,0
smt_19119,21.14152706948791,163.8,12.90691518283755,7.8040567495069375,0
smt_29422,21.14105620828388,163.8,12.90662772178503,7.804251104201853,0
smt_17184,21.14043211451979,163.8,12.906246712161042,7.803649498218605,0
rbt_606139,9.38360478102302,76.65,12.242145833037208,4.343052567548679,0
rbt_623004,7.332410805305721,61.95,11.836014213568555,4.514033890577466,0
rbt_1638954,7.151522113028651,61.95,11.544022781321472,5.425912738817345,0
rbt_1607265,10.051270618054557,90.3,11.130975213792423,5.237828282734449,0
sbt_11363,18.21851583766139,163.8,11.122415041307319,4.075273448421144,0
sbt_9361,21.546726457293587,216.3,9.961500904897635,4.691208792360523,0
rbt_635543,5.871652009362414,61.95,9.47805005546798,3.6785673147047855,0
rbt_606121,5.803885288055993,61.95,9.368660674828075,4.401881179506766,0
rbt_1605991,5.551439581017397,61.95,8.96116155127909,4.212764034803111,0
rbt_1607280,5.506549932507424,61.95,8.888700456024896,4.17725442929904,0
sbt_34393,11.080772923351605,128.1,8.65009595890055,5.686665967146447,0
rbt_606114,7.529392649295347,90.3,8.338197839751214,3.919140433016283,0
rbt_627337,7.329802231462735,90.3,8.11716747670292,3.8167142922221426,0
rbt_1621994,7.188689252002376,90.3,7.960896181619464,3.7409786241675573,0
rbt_626678,7.025909617306176,90.3,7.780630805433196,3.6588552349710053,0
rbt_606150,4.779808995637139,61.95,7.715591599091427,3.6246238613593804,0
rbt_1607272,6.882418789142117,90.3,7.621726233822942,3.5857954623905264,0
rbt_623007,4.701306785155406,61.95,7.588872938103965,3.5655728754308913,0
sbt_22748,16.281928665204802,216.3,7.527475111051688,3.541561007583626,0
sbt_7427,16.28192040101028,216.3,7.527471290342246,3.541557070938962,0
sbt_34383,9.632115465408425,128.1,7.519215819990965,4.4288036354179665,0
sbt_34392,9.632112305926812,128.1,7.5192133535728445,4.713379570553307,0
sbt_34384,9.619682092313395,128.1,7.5095098300651015,3.6270039714807916,0
rbt_1630759,5.691984985657722,76.65,7.4259425775051815,3.4927156915583617,0
rbt_606122,4.59598980511982,61.95,7.418869741920613,3.486940758013494,0
rbt_1229546,6.672131441377527,90.3,7.388849879709332,3.474547333588092,0
smt_34713,21.12831120060502,286.65,7.3707696496092865,4.456674696671267,0
smt_34700,21.128169188886822,286.65,7.370720107757482,4.456645023224855,0
smt_34701,21.12783280120134,286.65,7.370602756393281,4.456574757446736,0
smt_34715,21.12754515360693,286.65,7.370502408374999,4.456514697878479,0
smt_34702,21.127260260664105,286.65,7.370403021337557,4.4564552363057635,0
smt_34703,21.126870038124675,286.65,7.370266889281241,4.456373827892459,0
smt_34704,21.126400955369117,286.65,7.370103246247731,4.456276024221357,0
smt_34716,21.12610779233254,286.65,7.370000974126127,4.456214931151847,0
smt_34705,21.12581305110029,286.65,7.369898151439139,4.456153533556657,0
smt_34717,21.125461857105964,286.65,7.369775634783174,4.456080408135817,0
smt_34706,21.125106292502377,286.65,7.369651593407422,4.456006408005683,0
smt_34707,21.124687666305423,286.65,7.369505552522387,4.455919329010224,0
smt_34708,21.124297651746758,286.65,7.36936949302172,4.4558382458983505,0
smt_34709,21.123794370115764,286.65,7.369193919454305,4.455733678038863,0
smt_34718,21.123514021059155,286.65,7.369096117585612,4.455675460237343,0
smt_34710,21.12323987214648,286.65,7.3690004786835805,4.45561855133029,0
smt_34719,21.122953153351656,286.65,7.368900454683989,4.4555590557439375,0
smt_34711,21.1226673714394,286.65,7.368800757522903,4.455499777578077,0
smt_34720,21.122341542300155,286.65,7.368687089586659,4.455432220705512,0
smt_34712,21.122040962754216,286.65,7.368582230160202,4.455369925487882,0
smt_34721,21.121825293624497,286.65,7.368506992368568,4.45532524347963,0
smt_34714,21.12181642772352,286.65,7.368503899432591,4.455323406924376,0
rbt_1638606,4.550983603989981,61.95,7.346220506844199,3.4538304533991346,0
rbt_605905,6.511191226813782,90.3,7.210621513636525,3.389453504597214,0
rbt_1607283,6.447306881019138,90.3,7.139874729810784,3.3584827121971657,0
smt_31417,22.58815536518473,327.6,6.895041320263958,4.1926764948103274,0
smt_31416,22.58811098402272,327.6,6.895027772900708,4.192668341600856,0
smt_31411,22.588094074091877,327.6,6.895022611139156,4.192665234779961,0
smt_31412,22.588074935029432,327.6,6.895016768934504,4.192661718931005,0
smt_31413,22.5879614546043,327.6,6.89498212900009,4.192640873930212,0
smt_31414,22.587876177437472,327.6,6.894956098118886,4.192625211365011,0
smt_31415,22.587660097556622,327.6,6.894890139669298,4.192585531775122,0
smt_4387,22.587304768827842,327.6,6.894781675466374,4.192520303698644,0
smt_4863,22.58689480131056,327.6,6.8946565327565805,4.192445079973427,0
smt_4693,22.58655087990726,327.6,6.894551550643241,4.1923820033746235,0
smt_4591,22.58623659387608,327.6,6.894455614736287,4.192324384721146,0
smt_17964,22.585993399542534,327.6,6.894381379591738,4.183085885283449,0
smt_4627,22.58590307747948,327.6,6.89435380875442,4.19226326428044,0
smt_4527,22.585636322208916,327.6,6.894272381626652,4.192214396141331,0
smt_6826,22.58556539375461,327.6,6.894250730694325,4.183006797046536,0
smt_23134,22.585202691263977,327.6,6.894140015648344,4.19213499064103,0
smt_7012,22.585071366046897,327.6,6.894099928585744,4.182915559143304,0
smt_18545,22.584813918426033,327.6,6.8940213426208885,4.192063834593992,0
smt_22791,22.58462869645682,327.6,6.893964803558247,4.182833851714176,0
smt_10381,22.5844020507964,327.6,6.893895619901221,4.191988487826893,0
smt_18806,22.584193993304776,327.6,6.893832110288392,4.1919504401106105,0
smt_24122,22.584126283251717,327.6,6.893811441774028,4.191938059830888,0
smt_7020,22.584111979548613,327.6,6.893807075564289,4.182738531203555,0
smt_6842,22.58371441071655,327.6,6.893685717556944,4.182665230298219,0
smt_6830,22.583111323417327,327.6,6.893501624974764,4.182554103706464,0
smt_29390,22.5827538910339,327.6,6.893392518630616,4.182284260618913,0
smt_31407,22.582386036037793,327.6,6.893280230780767,4.182420566095799,0
smt_17776,22.582169677991303,327.6,6.893214187421032,4.182175352266929,0
smt_31408,22.58194189356623,327.6,6.893144656155748,4.1911903496836915,0
smt_10747,22.581575229152882,327.6,6.893032731731649,4.182064612535972,0
smt_18202,22.581059046759155,327.6,6.892875166898399,4.1819685158392135,0
smt_17794,22.580580084501825,327.6,6.892728963523146,4.181879400562694,0
smt_29420,22.580284154118015,327.6,6.8926386306831535,4.1818243651766585,0
smt_22739,22.580111217522344,327.6,6.892585841734538,4.181792212318942,0
smt_17795,22.579541029934095,327.6,6.892411791799175,4.181686247896688,0
smt_29389,22.578904970921386,327.6,6.892217634591387,4.181568125928215,0
smt_19163,22.578356936691883,327.6,6.892050346975544,4.1814664220863325,0
smt_17961,22.578007671102988,327.6,6.89194373354792,4.181401639971605,0
smt_29388,22.577604875738434,327.6,6.891820780139938,4.181326962301196,0
smt_17962,22.577109850205147,327.6,6.891669673444794,4.1812352340266745,0
rbt_1107340,6.173452686885487,90.3,6.836603196993895,3.2168272697615117,0
rbt_605822,6.172924590555708,90.3,6.836018372708426,3.2166807292368205,0
rbt_1626486,6.169070246341724,90.3,6.831749995948753,3.2102486511330404,0
rbt_1607287,6.16644087095579,90.3,6.828838173815936,3.2118022299138187,0
rbt_606132,4.1230148337867005,61.95,6.655391176411139,3.12701049302216,0
rbt_623433,5.972001708867877,90.3,6.613512412921237,3.1113340945491346,0
rbt_626698,5.930059365996136,90.3,6.567064635654635,3.08639991644097,0
rbt_1607252,4.997247831712938,76.65,6.519566642808791,3.0657189758498755,0
smt_6447,21.192963235866575,327.6,6.469158496906768,3.9139192496401947,0
smt_6627,21.192601669616767,327.6,6.469048128698647,3.913854762973688,0
smt_24630,21.192025279729247,327.6,6.468872185509538,3.91375202827869,0
smt_24629,21.191669652502885,327.6,6.468763630190136,3.9136886827500708,0
smt_24628,21.191195544596976,327.6,6.468618908607135,3.913604281472328,0
smt_24627,21.190843571390783,327.6,6.468511468678504,3.913541658569944,0
smt_6957,21.190514326938167,327.6,6.468410966708841,3.913483107189295,0
smt_6431,21.19010459863394,327.6,6.468285897018906,3.9134102802378172,0
smt_24626,21.189763641675754,327.6,6.468181819803343,3.9133497085587634,0
smt_12228,21.189392947251033,327.6,6.468068665217043,3.91328388645081,0
smt_6510,21.14783098860101,327.6,6.455381864652324,3.903341061317548,0
smt_19223,21.147330181173235,327.6,6.455228993032122,3.903250820241366,0
smt_22843,21.146903932961543,327.6,6.455098880635392,3.903174062804499,0
smt_6737,21.146532170370826,327.6,6.454985399991093,3.903107153586656,0
smt_24665,21.14604775471319,327.6,6.454837531963734,3.9030200203987544,0
smt_24635,21.145547343105804,327.6,6.454684781167827,3.902930070796835,0
smt_24637,21.145029587510066,327.6,6.4545267361141825,3.902837068648204,0
smt_24636,21.144523304237243,327.6,6.454372192990611,3.9027461912237804,0
smt_19174,21.144062378703257,327.6,6.4542314953306645,3.9026635105186855,0
smt_6686,21.143518664395042,327.6,6.454065526372113,3.902566046661985,0
smt_19173,21.142604443136523,327.6,6.453786460053883,3.902402331977663,0
smt_19172,21.142295544192653,327.6,6.453692168556975,3.9023470624290746,0
smt_6544,21.141958496104568,327.6,6.453589284525203,3.9022867831710246,0
smt_6535,21.141460340306672,327.6,6.453437222315833,3.9021977421336715,0
smt_24511,21.141036315474583,327.6,6.453307788606405,3.9019370744750357,0
smt_29446,21.140418914679252,327.6,6.453119326825169,3.901822296636569,0
smt_24634,21.140371471391305,327.6,6.45310484474704,3.9020033290458955,0
smt_32671,21.140011760130808,327.6,6.452995042774972,3.901746655840281,0
smt_24633,21.139982948186542,327.6,6.452986247920189,3.901934030151257,0
smt_24632,21.139565027948983,327.6,6.452858677640104,3.901859529550796,0
smt_6389,21.139562350836194,327.6,6.452857860450608,3.901663212359495,0
smt_24510,21.139548549673815,327.6,6.45285364764158,3.9016606503924334,0
smt_1873,21.139153728931333,327.6,6.452733128489417,3.9017862515177986,0
smt_24509,21.139070774550024,327.6,6.4527078066392,3.9015719960869095,0
smt_24631,21.138785204602815,327.6,6.452620636325646,3.9017206298513774,0
smt_24508,21.13865200077101,327.6,6.4525799758153255,3.9014943359700442,0
smt_6527,21.13840235994782,327.6,6.452503772877844,3.901652493851462,0
smt_6426,21.138274504452188,327.6,6.452464744948775,3.9014243675666047,0
smt_6420,21.137889652014675,327.6,6.452347268624747,3.9013530717431846,0
smt_6140,21.137473805178736,327.6,6.452220331251141,3.9012760750112228,0
smt_6653,21.137077179824804,327.6,6.4520992612407815,3.9012026768518706,0
smt_6650,21.13668639364271,327.6,6.451979973639411,3.9011303971021554,0
smt_29445,21.136303077981296,327.6,6.451862966416757,3.9010595355898983,0
smt_24507,21.135908771215874,327.6,6.451742604156249,3.9009866799148623,0
smt_24506,21.135515827876787,327.6,6.451622658082047,3.9009141142336596,0
smt_24505,21.13511035640127,327.6,6.4514988877903745,3.900839274753237,0
smt_24459,21.134762466318122,327.6,6.451392694236301,3.9007750955498133,0
smt_24458,21.13434345310173,327.6,6.451264790324093,3.9006978350193653,0
smt_24457,21.13392184273843,327.6,6.451136093632,3.900620139227857,0
smt_24456,21.13353417795918,327.6,6.451017758839798,3.900548737687006,0
smt_24455,21.13313622406437,327.6,6.450896283291932,3.9004754795443173,0
smt_24454,21.132754454865285,327.6,6.450779748127376,3.9004052374313196,0
smt_19165,21.13233294140307,327.6,6.450651081014367,3.900327724443583,0
smt_17113,21.131892240138622,327.6,6.4505165568188705,3.90024672977343,0
smt_6993,21.130925461158153,327.6,6.450221447239973,3.9000692171226308,0
smt_24453,21.130338903700753,327.6,6.450042400397055,3.899961630125364,0
smt_24452,21.129884941884267,327.6,6.449903828414001,3.8998784221194565,0
smt_24451,21.129487097325306,327.6,6.449782386240936,3.8998055417555424,0
smt_24450,21.129111304034726,327.6,6.4496676752242745,3.8997367367371774,0
smt_6394,21.128700203670743,327.6,6.44954218671268,3.899661507111826,0
smt_24668,21.121806180982336,327.6,6.447437784182641,3.8984061241938543,0
smt_29393,21.12164537003067,327.6,6.447388696590559,3.898376980537248,0
smt_19218,21.120293951152735,327.6,6.446976175565548,3.898132315912274,0
smt_6502,21.11982373592429,327.6,6.446832642223531,3.8980472925648133,0
smt_24667,21.119578018620828,327.6,6.446757636941644,3.8980028841732146,0
smt_6683,21.1189173945787,327.6,6.446555981251128,3.897883563807255,0
smt_19220,21.1183813964377,327.6,6.446392367654975,3.8977868322753078,0
smt_22844,21.118008650996945,327.6,6.446278586995404,3.8977196047973988,0
smt_6687,21.11759909078466,327.6,6.4461535686155855,3.8976457770896165,0
smt_24666,21.11729205748346,327.6,6.446059846606672,3.8975904581535024,0
rbt_637356,3.905495543093295,61.95,6.3042704488995875,2.963286472028097,0
rbt_631391,5.621650527491698,90.3,6.225526608517938,4.714743910030478,0
sbt_28279,13.46554202821327,216.3,6.225400845221114,2.788876969027244,0
sbt_20214,13.465534577711788,216.3,6.225397400698931,2.7888770274069237,0
rbt_605855,4.635476373343195,76.65,6.047588223539719,2.8443813803152267,0
rbt_1607255,5.413566576035762,90.3,5.9950903389100345,2.818015379083958,0
rbt_636933,4.5071585024288,76.65,5.880180694623353,2.7666009325393723,0
rbt_605910,3.5400282923666886,61.95,5.7143313839655985,2.6843532480892223,0
rbt_627343,5.125891115242857,90.3,5.676512862948901,2.6673203067278752,0
rbt_1607304,3.4434771132675697,61.95,5.5584779875182715,2.6105998474422587,0
rbt_1607305,4.865789413983807,90.3,5.388471111831458,2.5332007815469937,0
rbt_1607285,3.3045044625441373,61.95,5.334147639296428,2.5047295640589966,0
rbt_606103,4.016080528304014,76.65,5.239504929294212,2.462792799045743,0
rbt_3405846,4.003201841876225,76.65,5.222702990053783,2.455765038439005,0
rbt_606109,3.1880621434603116,61.95,5.146185865149817,2.4176582852663424,0
rbt_605825,4.64624249509878,90.3,5.145340526133754,2.4193027933047166,0
sbt_4580,8.358250110009363,163.8,5.1027167948775105,2.400754905633821,0
rbt_1631852,4.598925492981738,90.3,5.092940745273243,2.39375024914612,0
rbt_605993,4.572185778895038,90.3,5.0633286587984925,2.3795004228788756,0
rbt_621999,4.538847528888652,90.3,5.026409223575472,2.362543044133382,0
rbt_630753,4.536424566797981,90.3,5.0237259875946645,2.3623482112285887,0
sbt_6049,8.198580768339149,163.8,5.0052385643096144,2.3551025376317756,0
rbt_607384,3.0026735805637426,61.95,4.8469307192312225,2.2773006310468524,0
rbt_1607278,3.7087692268917527,76.65,4.838576943107309,2.273467435274704,0
rbt_1628760,4.355543928952508,90.3,4.823415203712633,2.266276473785824,0
rbt_3433894,4.331606137332666,90.3,4.7969060214093755,2.255141134697361,0
rbt_1607357,3.6539811089243868,76.65,4.767098641780022,2.2404363131642344,0
sbt_25907,10.292911251336855,216.3,4.758627485592629,1.7585044979589102,0
sbt_21361,10.292904521673554,216.3,4.758624374328966,1.758504598232764,0
sbt_20771,10.292899147733063,216.3,4.758621889844227,1.7585067503392962,0
smt_6110,15.412624945193853,327.6,4.704708469228892,2.722363409257792,0
smt_6802,14.936798091073527,327.6,4.55946217676237,2.728283045839597,0
smt_24514,14.93626197266772,327.6,4.559298526455348,2.7281646709265712,0
smt_24513,14.935705242010474,327.6,4.5591285842522815,2.72804183439244,0
smt_19166,14.935268417901389,327.6,4.558995243559642,2.7279455178421217,0
smt_6414,14.934842040898095,327.6,4.558865091849236,2.7278515590853147,0
smt_18852,14.934410539515774,327.6,4.558733375920566,2.7277565256316136,0
smt_6403,14.933931787698757,327.6,4.558587236782282,2.727651150096523,0
smt_1832,14.933515624518835,327.6,4.558460202844577,2.727559605613102,0
smt_1831,14.933110207432913,327.6,4.5583364491553455,2.727470474162668,0
smt_1829,14.932314326088559,327.6,4.558093506132038,2.727295640024827,0
smt_1828,14.931738260288983,327.6,4.557917661870873,2.727169210506702,0
smt_24515,14.839159635708928,327.6,4.529658008458158,2.68032975096672,0
smt_6552,14.838783896613894,327.6,4.529543313984704,2.680245794731693,0
smt_6549,14.83828747074851,327.6,4.529391779837763,2.6801349371324896,0
smt_23959,14.837854016778056,327.6,4.529259467880969,2.6800382026823293,0
smt_22744,14.837334054429503,327.6,4.529100749215355,2.6799222368090834,0
smt_19175,14.83690163349528,327.6,4.528968752593186,2.6798258572756097,0
smt_19177,14.836409290398267,327.6,4.528818464712535,2.6797161909116554,0
smt_19176,14.835891887226197,327.6,4.528660527236323,2.679601021526027,0
smt_19164,14.835666617221662,327.6,4.528591763498675,2.679550903745469,0
smt_32311,14.835279010349613,327.6,4.528473446382665,2.6794647053998393,0
smt_39119,14.834814120832313,327.6,4.528331538715602,2.67936138053998,0
smt_32312,14.83479229489128,327.6,4.52832487634044,2.6793565312969734,0
smt_32310,14.834774496827045,327.6,4.528319443475898,2.6793525767438955,0
smt_32309,14.834344343729155,327.6,4.528188139111464,2.67925703583465,0
smt_32314,14.834147690042869,327.6,4.528128110513697,2.6792133759936365,0
smt_32313,14.834132757359232,327.6,4.5281235523074574,2.6792100609305005,0
smt_6350,14.761203646171973,327.6,4.5058619188559135,2.6656110208858848,0
smt_24517,14.759090200994766,327.6,4.505216789070441,2.665368529107157,0
smt_24520,14.758442597874932,327.6,4.505019108020431,2.665223755100961,0
smt_19116,14.758136826491684,327.6,4.504925771212358,2.665155442945282,0
rbt_605806,3.99126976093436,90.3,4.420010809451118,2.0771013626653745,0
rbt_622714,3.931228431896143,90.3,4.353519858135264,2.0469852946914577,0
rbt_1607258,3.28654991525078,76.65,4.287736353882296,2.016235409527749,0
rbt_627328,3.8380955353523514,90.3,4.250382652660411,2.0002446854798097,0
smt_6066,6.942684459961223,163.8,4.238513101319428,2.394367381046013,0
smt_6062,6.9423082690975955,163.8,4.238283436567518,2.3943442542784843,0
smt_6719,6.941892859864884,163.8,4.23802982897734,2.3943203653964207,0
smt_6176,6.941424530987933,163.8,4.2377439139120465,2.3942840874316547,0
smt_6144,6.940987116269083,163.8,4.237476871959147,2.3942569614026668,0
smt_6227,6.940523390482703,163.8,4.237193767083457,2.394223947295725,0
smt_19063,6.940075338084311,163.8,4.236920230820703,2.3941939276052797,0
smt_6092,6.939631246054451,163.8,4.236649112365354,2.394158349241597,0
smt_29474,6.939246507693311,163.8,4.236414229360996,2.394139293931094,0
smt_29473,6.93881581659354,163.8,4.236151292181648,2.394112565099125,0
smt_19115,6.938384946868777,163.8,4.235888245951634,2.3940753876438214,0
smt_24512,6.93804523065698,163.8,4.235680848996935,2.39401599030251,0
sbt_5830,6.894650423677546,163.8,4.209188292843434,1.9802958622830797,0
smt_37840,6.848049296095054,163.8,4.180738276004306,2.370827548085203,0
smt_6474,6.847741997107549,163.8,4.180550669784828,2.370810519502271,0
smt_19061,6.847361329266279,163.8,4.180318271835335,2.370779578308078,0
smt_29476,6.84698943143647,163.8,4.180091227983193,2.3707593124146285,0
smt_6594,6.846535328181314,163.8,4.179813997668689,2.370725069803861,0
smt_29475,6.846077467873568,163.8,4.1795344736712865,2.3706840061264596,0
smt_19011,6.845682810645814,163.8,4.179293535192804,2.3706611839700806,0
smt_19014,6.8452304224261376,163.8,4.1790173519085085,2.37062798895742,0
rbt_621168,3.193085628229786,76.65,4.165799906366322,1.9579851078922097,0
rbt_1107330,3.7473736054807603,90.3,4.1499153992035,1.9528838175931333,0
rbt_605815,3.747149831603278,90.3,4.149667587600529,1.9513827760089724,0
rbt_621171,2.5633324489679588,61.95,4.137744066130684,1.9439566111077788,0
rbt_3422597,3.730417742747382,90.3,4.131138142577389,1.9428318641193358,0
rbt_606127,2.5443622773167784,61.95,4.107122320123937,1.9296030169563843,0
rbt_635966,2.530250365075549,61.95,4.084342800767633,1.9191215202965417,0
rbt_1124041,3.6809892040899768,90.3,4.0764000045293205,1.9170516289972224,0
rbt_605921,3.0328885567811046,76.65,3.956801770099288,1.8598903331040229,0
sbt_14007,6.447306594010877,163.8,3.936084611728252,1.8514710566840533,0
sbt_4118,11.268037442692274,286.65,3.930939278804212,1.4096812103501033,0
rbt_627336,3.5200139399114883,90.3,3.8981328238222464,1.831587852929496,0
rbt_1627321,3.5067147961043297,90.3,3.8834050898165335,1.8253126757907887,0
rbt_1607355,3.492359128250147,90.3,3.8675073402548694,1.817781359257786,0
rbt_605902,2.3953555873525336,61.95,3.8665949755488835,1.8169472692169275,0
sbt_35173,4.865789013429119,128.1,3.7984301431921303,1.7856985893356871,0
rbt_1607358,2.90805494931414,76.65,3.793939920827319,1.7833732161531624,0
sbt_21952,8.198579874021327,216.3,3.790374421646475,1.7834752135739507,0
sbt_20840,6.1729245552970085,163.8,3.7685742095830332,1.7732982905179655,0
sbt_6273,6.166440563381082,163.8,3.7646157285598787,1.7706087269809032,0
rbt_3405838,3.3506759162783823,90.3,3.7106045584478213,1.7459400551882949,0
rbt_622273,2.13220409829658,57.75,3.6921283087386665,1.7378250601444905,0
rbt_1107341,2.284453072621117,61.95,3.6875755813093094,1.7346305798381607,0
rbt_638617,2.275293999313845,61.95,3.6727909593443826,1.727628052251827,0
rbt_605828,3.3103321204492997,90.3,3.665927043686932,1.7250509921578197,0
rbt_1607292,3.2465226988469333,90.3,3.5952632323886307,1.6903416365211792,0
smt_6536,10.30419515945286,286.65,3.594695677464804,2.1426609427548278,0
smt_6703,10.303633319208704,286.65,3.5944996752864835,2.1425430433936583,0
smt_6514,10.303082380817939,286.65,3.5943074763013922,2.142427621385549,0
smt_6984,10.302998284330467,286.65,3.59427813861171,2.1424100196452627,0
smt_5854,10.302142668525049,286.65,3.5939796506279604,2.1422311851315095,0
smt_5855,10.30150164031319,286.65,3.593756023133853,2.142097500132036,0
smt_5657,10.300976252004657,286.65,3.5935727374863626,2.1419881223010484,0
smt_21743,10.300422369453118,286.65,3.593379511408728,2.141872998782984,0
smt_22741,10.299854850776132,286.65,3.5931815282665736,2.141755239702181,0
smt_6098,10.299403982452512,286.65,3.5930242394741017,2.141661828935095,0
smt_19120,10.298881141692004,286.65,3.592841842557825,2.141553678126703,0
smt_22740,10.298363665230767,286.65,3.5926613170175363,2.1414468148034724,0
smt_22738,10.285442832440804,286.65,3.5881537876995653,2.136320668123442,0
smt_6754,10.284970734416477,286.65,3.5879890927669558,2.136221701020253,0
smt_6567,10.284490830657912,286.65,3.587821674745478,2.1361212389311772,0
smt_6746,10.28401377625311,286.65,3.5876552507424075,2.1360215147838844,0
smt_6812,10.283544960678528,286.65,3.5874917009169818,2.1359236504679404,0
rbt_1635060,2.2030263154134904,61.95,3.5561361023623737,1.6720797790794082,0
rbt_1626490,3.211037460074496,90.3,3.555966179484492,2.693145929488906,0
sbt_37156,5.80388507416268,163.8,3.5432753810516973,1.6648139040560943,0
rbt_605867,3.193162808752303,90.3,3.536171438263901,1.6627390699283795,0
sbt_4615,5.727733535869626,163.8,3.496784820433227,1.6460796655296017,0
sbt_3373,5.727732316587845,163.8,3.4967840760609556,1.6460788637685002,0
sbt_20793,5.727731198878254,163.8,3.4967833936985673,1.6460781343348623,0
sbt_4010,5.727729468827016,163.8,3.496782337501231,1.6460770152522164,0
sbt_28804,5.727727900417475,163.8,3.496781379986248,1.6460760107045216,0
rbt_605812,3.118801281516803,90.3,3.453822017183614,1.6253106086953988,0
rbt_632613,3.115575385538496,90.3,3.4502495963881463,1.6227023596819945,0
rbt_622713,3.0992889165265995,90.3,3.432213639564341,1.6127867480901414,0
rbt_606120,2.1161426023855583,61.95,3.4158879780234996,1.6045348343097157,0
sbt_37537,7.332441999799529,216.3,3.389940822838432,1.2928556878777009,0
sbt_37545,7.332433336724684,216.3,3.3899368177183002,1.2928562824204055,0
sbt_37546,7.33241658300009,216.3,3.3899290721220945,1.2928550418790845,0
sbt_26269,7.329801863189644,216.3,3.388720232635064,1.5933854034468862,0
sbt_37539,7.325361885763969,216.3,3.3866675384946685,1.7536252039673685,0
sbt_37538,7.325356347042762,216.3,3.3866649778283686,1.753625729794752,0
rbt_1132019,3.018239752878278,90.3,3.342458198093331,1.5715111303628841,0
rbt_605863,3.0036292874782355,90.3,3.3262782807067945,1.5643444629128274,0
rbt_634166,2.523783772255631,76.65,3.2926076611293293,1.547226815846478,0
rbt_1138614,2.0265123161414875,61.95,3.2712063214551854,1.5380114024191247,0
rbt_605803,2.91682297918467,90.3,3.230147263770399,1.518383441986348,0
rbt_605834,2.8967569680179697,90.3,3.2079257674617603,1.5101099969245493,0
smt_29484,5.240688847948437,163.8,3.1994437411162617,1.585482486036337,0
smt_22951,5.24067532953886,163.8,3.1994354881189615,1.585474196702088,0
smt_19381,5.23933588124649,163.8,3.1986177541187355,1.584654204245659,0
smt_18804,5.238638625759357,163.8,3.1981920792181664,1.5842283575867633,0
smt_19380,5.237839649405686,163.8,3.1977043036664745,1.5837412352470208,0
rbt_605904,1.9807388136853865,61.95,3.1973185047383152,1.5013506790845736,0
smt_5349,5.2371995536328315,163.8,3.197313524806368,1.5833516375115992,0
smt_18803,5.236549457574864,163.8,3.196916640766095,1.5829565545636504,0
smt_13454,5.235885695407504,163.8,3.196511413557694,1.582553794209814,0
smt_19377,5.2350967350693045,163.8,3.196029752789563,1.5820758944711741,0
smt_29411,5.234104950862067,163.8,3.1954242679255596,1.5814764209585566,0
smt_8954,5.233495644996772,163.8,3.1950522863228152,1.5811088449175699,0
smt_5584,5.2327854261553055,163.8,3.194618697286511,1.580681078667219,0
rbt_605810,2.443664264407018,76.65,3.188081232103089,1.498357187101689,0
rbt_605864,2.871854477226656,90.3,3.180348258279796,1.4957235698561868,0
smt_37837,6.848566119520548,216.3,3.1662349142489816,1.795416886590794,0
smt_37841,6.84824467029569,216.3,3.166086301569898,1.7953872864872311,0
rbt_609682,2.42119073906542,76.65,3.1587615643384477,1.4859074563392767,0
rbt_622703,1.9427007017536566,61.95,3.135917194114054,2.3754323701570024,0
rbt_605835,2.8309774073288856,90.3,3.1350801853033063,1.475802915129835,0
smt_7052,5.133657372676476,163.8,3.134100960119948,1.7176465973866772,0
sbt_14006,5.124362838326957,163.8,3.128426641225248,1.4710631756344412,0
sbt_27416,6.672131312850052,216.3,3.0846654243412166,1.4505391170304323,0
sbt_15213,6.672131266760582,216.3,3.0846654030330938,1.4505391070852076,0
rbt_606128,2.3513496435993293,76.65,3.067644675276359,1.4416151807322093,0
rbt_1607257,2.7451699742934004,90.3,3.0400553425176087,1.4289587505873043,0
rbt_607385,2.7400306189524875,90.3,3.0343639191057448,1.4271048746748898,0
rbt_3405845,2.7311694747283575,90.3,3.0245509133204402,1.423688570818178,0
rbt_633056,2.7274007037949124,90.3,3.0203773020984634,1.4199808124330884,0
rbt_606141,2.7247063197511836,90.3,3.017393488096549,1.4202949535964864,0
rbt_623015,2.7171894578078564,90.3,3.009069167007593,2.2790923957909253,0
sbt_34389,3.83809427294249,128.1,2.9961703926170884,2.305232547735758,0
rbt_605982,2.6622863398620904,90.3,2.9482683719402996,1.3869856343092721,0
rbt_1606000,2.660803921682384,90.3,2.9466267128265606,1.3852833340085713,0
smt_37855,6.347865927255853,216.3,2.9347507754303526,1.5530079587741372,0
smt_37854,6.347535257859657,216.3,2.9345979000738125,1.5530338111928517,0
smt_37853,6.347231028947387,216.3,2.9344572487042937,1.5530650626195694,0
smt_37852,6.346918819818675,216.3,2.93431290791432,1.553091583235372,0
smt_37851,6.346624812930998,216.3,2.9341769823999067,1.5531233041309207,0
smt_37850,6.346319062855951,216.3,2.9340356277651183,1.5531535840749802,0
smt_37849,6.34601462140588,216.3,2.933894878134942,1.5531867870816043,0
smt_37848,6.345699368996638,216.3,2.9337491303729255,1.5532187010558418,0
smt_37847,6.345385366993577,216.3,2.933603960699758,1.5532298550741122,0
smt_37846,6.345164709888659,216.3,2.933501946319306,1.5532711474188925,0
smt_37845,6.344863574700735,216.3,2.9333627252430583,1.5533073025253887,0
smt_38000,6.344542659279809,216.3,2.9332143593526627,1.5533300326562989,0
rbt_1629639,2.648601209286147,90.3,2.9331131885782358,1.3780493357451675,0
smt_38002,6.344270933980912,216.3,2.933088735081328,1.5532977852607521,0
smt_38001,6.3442638862705385,216.3,2.9330854767778725,1.553299654198051,0
smt_37843,6.344253191328112,216.3,2.933080532282992,1.5533665985059377,0
smt_37842,6.343957322523114,216.3,2.932943745965378,1.5533654409128328,0
smt_37838,6.343804437583218,216.3,2.9328730640699114,1.5534035539710904,0
sbt_3952,4.790684052014213,163.8,2.924715538470215,1.3762685491154183,0
sbt_4120,4.790682618724599,163.8,2.924714663446031,1.3762676252158401,0
sbt_20855,4.790681223319983,163.8,2.924713811550661,1.3762667320309614,0
sbt_20854,4.790679899646348,163.8,2.9247130034470987,1.3762658902921043,0
rbt_635963,1.8101994281734062,61.95,2.9220329752597354,1.3725357549205677,0
smt_25186,4.734789497042896,163.8,2.8905918785365663,1.5895273665436698,0
rbt_626481,2.6039017349140865,90.3,2.883612109539409,1.3553909958598946,0
rbt_1607306,2.195931417689905,76.65,2.864881171154475,1.3469837880171556,0
rbt_605901,2.578295064131814,90.3,2.8552547775546113,1.3416173392275361,0
rbt_605820,2.185423445937461,76.65,2.851172140818605,1.340916328806518,0
rbt_3405847,2.5733314037665576,90.3,2.8497579222221017,1.3412713708385358,0
rbt_1607289,2.1704170515071666,76.65,2.8315943268195256,1.3306305742841271,0
sbt_34000,6.12468322257284,216.3,2.831568757546389,1.3308637484557588,0
sbt_20828,4.595988536936471,163.8,2.8058538076535227,1.3187780899958905,0
rbt_1609690,2.4954579114704427,90.3,2.7635192818055843,1.2984643413490418,0
sbt_34382,3.514106007508925,128.1,2.743252152622112,1.2891193446692726,0
rbt_1625170,2.475356785258064,90.3,2.741258898403172,1.288105342596891,0
rbt_605821,3.499918364213475,128.1,2.732176708987881,1.2837166914509643,0
sbt_35105,3.4923587629098516,128.1,2.726275380882008,1.2813865661362873,0
rbt_605988,2.443967688526687,90.3,2.7064979939387452,1.2736197304898307,0
smt_37856,5.853366381064642,216.3,2.7061333245791226,1.4581592336008284,0
smt_15243,4.4256667776253105,163.8,2.7018722696125215,1.5593249788345191,0
smt_26472,4.42526603865502,163.8,2.701627618226508,1.559329453540505,0
smt_14780,4.424812095409914,163.8,2.7013504855982378,1.5593254943070491,0
smt_14754,4.4243593996053825,163.8,2.7010741145332005,1.559322385405711,0
smt_14729,4.423909235668346,163.8,2.7007992891748143,1.5635985303978936,0
smt_21229,4.423452531833084,163.8,2.700520471204569,1.5635910172313432,0
smt_26474,4.423022424316532,163.8,2.7002578903031327,1.563580441452716,0
smt_22453,4.42264327747843,163.8,2.7000264209270024,1.5635925085514,0
smt_14544,4.422188113003652,163.8,2.699748542737272,1.563592345231761,0
smt_14113,4.421733804336628,163.8,2.6994711870186983,1.5636011302642732,0
smt_22508,4.421235708667569,163.8,2.6991670993086503,1.5635931165272543,0
smt_14452,4.420796866647119,163.8,2.6988991859872518,1.5635836039532105,0
smt_30311,4.420428816038174,163.8,2.698674490865796,1.5636025392427715,0
smt_26478,4.419975191658447,163.8,2.698397552905035,1.5635931809423829,0
smt_6512,7.685031094551794,286.65,2.6809806713943116,1.6144870393915527,0
smt_6425,7.684661862024984,286.65,2.6808518618611497,1.614425375569473,0
smt_6930,7.684096330786756,286.65,2.680654572051895,1.614326134859911,0
rbt_605804,1.6564836659827753,61.95,2.673904222732486,1.2565889003878223,0
sbt_6048,4.331558291018412,163.8,2.6444189810857215,1.2443396071639705,0
rbt_605829,2.381753219187346,90.3,2.6376004642163298,1.2399346622569423,0
smt_22686,7.546141576976337,286.65,2.6325280226674823,1.6549755588197754,0
smt_6239,7.545705811324826,286.65,2.6323760025553207,1.654897632869737,0
smt_23961,7.545280528402351,286.65,2.6322276394217172,1.6548219779599984,0
smt_29407,7.5448479820766945,286.65,2.632076742395498,1.6547445310728097,0
smt_6278,7.544460634075577,286.65,2.6319416131434075,1.6546766933442294,0
smt_6630,7.544009081523749,286.65,2.631784085652799,1.6545968515366798,0
smt_19070,7.543555455251102,286.65,2.6316258347291477,1.654516811057068,0
sbt_15045,5.691982283419843,216.3,2.631522091271309,1.237708644384143,0
smt_6639,7.543102174886926,286.65,2.6314677044782577,1.6544366192988889,0
smt_19117,7.542679132234842,286.65,2.631320122879764,1.6543619560298177,0
smt_856,4.307746047572564,163.8,2.6298815919246423,1.5259054334458126,0
smt_15622,4.307248881047537,163.8,2.6295780714575923,1.5258693124037144,0
smt_23196,4.306972709531291,163.8,2.6294094685783214,1.5258753155343678,0
smt_15581,4.306676748212821,163.8,2.629228784012711,1.5258828592840399,0
smt_15568,4.306356509045067,163.8,2.6290332778052905,1.5258849646655126,0
smt_21514,7.525473039554274,286.65,2.6253176485450114,1.6492456611182715,0
smt_5615,7.525033995960212,286.65,2.625164484898033,1.6491641171074096,0
smt_18742,7.524692124197376,286.65,2.625045220372362,1.6491034924847394,0
smt_6270,7.524155284324317,286.65,2.624857939760795,1.6490041716977626,0
smt_5967,7.523737812444961,286.65,2.624712301568101,1.6489288787776017,0
smt_5772,7.523245424177215,286.65,2.6245405282320657,1.6488392991563456,0
smt_6158,7.522758528728297,286.65,2.624370671107029,1.6487502763664363,0
smt_6263,7.522336927282281,286.65,2.6242235922840687,1.6486751410427976,0
smt_6384,7.521814163867078,286.65,2.6240412223502805,1.648580682215716,0
smt_22684,7.521302753644037,286.65,2.623862813062633,1.6484875405147423,0
smt_22685,7.520885553485377,286.65,2.62371726966174,1.6484128763947596,0
smt_29447,7.5204482171198475,286.65,2.623564701594226,1.6483349197482788,0
smt_19065,7.519979782355812,286.65,2.6234012846174126,1.6482519821640167,0
smt_24385,7.5194505793702735,286.65,2.6232166681912696,1.6481575222949834,0
rbt_1607316,2.355520192963077,90.3,2.6085494938683023,1.9765488812569239,0
rbt_1107342,1.6157195915809126,61.95,2.6081026498481235,1.226235453204073,0
smt_29448,7.470509034401615,286.65,2.606143043572864,1.6365956736108964,0
smt_6824,7.470085703455805,286.65,2.605995361400944,1.6365146265256076,0
smt_6855,7.469631858200338,286.65,2.6058370340834953,1.6364282860955566,0
smt_19062,7.469101953907599,286.65,2.6056521730010815,1.6363261357615906,0
smt_7054,7.468680838419915,286.65,2.605505263708326,1.6362459136606888,0
smt_6446,7.468250642689428,286.65,2.6053551867048417,1.6361641501440147,0
smt_39006,7.467809955407938,286.65,2.60520144964519,1.6360800979355077,0
smt_39008,7.467411808166526,286.65,2.6050625529972185,1.636001279766618,0
smt_39007,7.467395028603538,286.65,2.6050566993209623,1.636001352284885,0
smt_6122,7.467012994276539,286.65,2.6049234237838963,1.6359300329770463,0
smt_18741,7.46653097194606,286.65,2.6047552666827354,1.6358387755167787,0
smt_5938,7.4660844718342245,286.65,2.60459950177367,1.6357554114464257,0
smt_5946,7.465568976099683,286.65,2.6044196672247284,1.6356582209206512,0
smt_37925,5.593276360195125,216.3,2.585888284879854,1.3994360815352287,0
smt_37924,5.593128854345345,216.3,2.5858200898499053,1.399496022726141,0
smt_37923,5.592813277674379,216.3,2.5856741921749324,1.3995349047698493,0
smt_37864,5.592502313799489,216.3,2.5855304270917654,1.3995339970598153,0
smt_37863,5.592355033856448,216.3,2.585462336503212,1.3995528517638898,0
smt_37862,5.592207937388816,216.3,2.585394330739166,1.3995957296742854,0
smt_37861,5.591965030789986,216.3,2.585282029953761,1.399640102878756,0
smt_37860,5.59167106496825,216.3,2.5851461234249884,1.3996826707699606,0
smt_37859,5.591361197785296,216.3,2.5850028653653703,1.3997037071859693,0
smt_37858,5.591130397914856,216.3,2.584896161772934,1.3997568208811304,0
smt_37831,5.590811377686066,216.3,2.5847486720693786,1.3997571538392866,0
smt_37898,5.576722228152153,216.3,2.5782349644716382,1.3902519434057767,0
smt_37897,5.576366520852824,216.3,2.5780705135704225,1.3902699602836306,0
smt_37896,5.576057564080189,216.3,2.5779276764124774,1.3902988268156997,0
smt_37895,5.575726279107168,216.3,2.577774516461936,1.3903241319190451,0
smt_37894,5.575400405044141,216.3,2.5776238580879056,1.390346807098765,0
smt_37893,5.575092289775595,216.3,2.5774814099748475,1.3903748526962687,0
smt_37892,5.574770774478681,216.3,2.577332766749275,1.3903991611073192,0
smt_37891,5.574460769104878,216.3,2.5771894448011454,1.3904293695166026,0
smt_37890,5.574131232217305,216.3,2.5770370930269557,1.390481962600628,0
smt_37889,5.573686144527378,216.3,2.5768313197075257,1.3904735854573922,0
smt_37888,5.573462553016699,216.3,2.576727948690106,1.3904911332762835,0
smt_37887,5.5732485470822235,216.3,2.5766290092844306,1.3905351011304525,0
smt_37886,5.5729174724389,216.3,2.5764759465736935,1.3905621781482218,0
smt_37885,5.572598590241896,216.3,2.5763285206851116,1.3905918249401523,0
smt_37884,5.572276564803105,216.3,2.576179641610312,1.3906216622428438,0
smt_37883,5.5719535739423485,216.3,2.576030316200808,1.3906538470033007,0
smt_37882,5.571621000010751,216.3,2.575876560337841,1.3906827990130657,0
smt_37881,5.571299551886573,216.3,2.575727948167625,1.3907145404761172,0
smt_37880,5.570973428968457,216.3,2.575577174742698,1.3907417410801077,0
smt_37879,5.570666955027368,216.3,2.575435485449546,1.3907786843544825,0
smt_37878,5.570329158754492,216.3,2.575279315189317,1.3908076600900545,0
smt_37877,5.57001152646497,216.3,2.5751324671590243,1.3908420886763875,0
smt_37876,5.569682365426792,216.3,2.5749802891478466,1.3908758036971112,0
smt_37875,5.569351818235276,216.3,2.5748274702890783,1.3909100214242667,0
smt_37874,5.569020078698725,216.3,2.5746741001843385,1.3909423051909415,0
smt_37873,5.568697988139606,216.3,2.574525191003054,1.390970864740073,0
smt_37945,5.56839908652098,216.3,2.5743870025524638,1.390982919353861,0
smt_37944,5.568186068637297,216.3,2.5742885199432717,1.39101403904328,0
smt_37943,5.5679367147362955,216.3,2.574173238435643,1.3910510581264497,0
smt_37942,5.567643539124574,216.3,2.5740376972374355,1.3910824383859206,0
smt_37941,5.567352929206065,216.3,2.5739033422126973,1.3911138023269587,0
smt_37940,5.567065102641993,216.3,2.57377027399075,1.3911472160801752,0
smt_37939,5.5667713036061786,216.3,2.5736344445705863,1.3911816604757659,0
smt_37938,5.566471400500909,216.3,2.573495793111839,1.391216502817595,0
smt_37937,5.566168099163302,216.3,2.5733555705794275,1.391250025193102,0
smt_37936,5.5658700966119214,216.3,2.5732177977863713,1.3912845419563975,0
smt_37935,5.565572052285697,216.3,2.573080005679934,1.3913125753630464,0
smt_37934,5.5653025423331375,216.3,2.5729554056094024,1.391350336098647,0
smt_37933,5.56500810688685,216.3,2.5728192819634073,1.3913857798240326,0
smt_37932,5.564712102969311,216.3,2.5726824331804488,1.3914213721965016,0
smt_23147,4.2044091268605595,163.8,2.56679433874271,1.5005812700452819,0
smt_16038,4.204126601797988,163.8,2.5666218570195283,1.5006827138711978,0
sbt_22669,5.551439070931935,216.3,2.5665460337179544,1.2065680921410153,0
rbt_3405987,1.5897491581087209,61.95,2.5661810461803403,1.2079863479491395,0
rbt_1132012,2.307454120338538,90.3,2.555320177562058,1.2009461573158369,0
rbt_1607268,1.9562341597687953,76.65,2.5521645920010374,1.199319202711833,0
smt_37986,5.507462429628994,216.3,2.546214715501153,1.410385269450736,0
smt_37987,5.507232084559134,216.3,2.5461082221725073,1.4103977198489333,0
smt_37993,5.506937865122982,216.3,2.545972198392502,1.4103806834176231,0
smt_37920,5.506790794547169,216.3,2.5459042045987834,1.4104135550414891,0
sbt_35588,5.506546527677246,216.3,2.54579127493169,1.1963965164733397,0
smt_37919,5.506433889134763,216.3,2.545739199784911,1.4104184782679712,0
smt_37918,5.506083649511403,216.3,2.545577276704301,1.410422392332749,0
smt_37917,5.505748707427869,216.3,2.545422425995316,1.4104301531558008,0
smt_37916,5.5054037110928755,216.3,2.545262926996244,1.4104362669878363,0
smt_37915,5.5050635105204115,216.3,2.5451056451781837,1.4104301678675426,0
smt_37914,5.504810855354262,216.3,2.5449888374268435,1.4104474504888938,0
smt_37913,5.504480160326437,216.3,2.5448359502202664,1.410457598108091,0
smt_37912,5.504132270972796,216.3,2.544675113718352,1.4104642120553204,0
smt_40685,5.503795445210916,216.3,2.544519392145592,1.4104696704020239,0
smt_37911,5.503476490797602,216.3,2.5443719328699035,1.410431647753362,0
smt_37910,5.5034577978762185,216.3,2.5443632907425884,1.4104822599091646,0
smt_37909,5.503115601672777,216.3,2.544205086302717,1.4104904919168586,0
smt_37908,5.502780255370801,216.3,2.5440500487151185,1.4105023640545633,0
rbt_605823,2.2971722000490202,90.3,2.5439337763555043,1.1962345050878782,0
smt_40683,5.502429710684211,216.3,2.543887984597416,1.4105087559010754,0
smt_37906,5.502103979697097,216.3,2.543737392370364,1.4105205432569816,0
smt_37905,5.501766567686371,216.3,2.5435813997625383,1.4105274614032481,0
smt_37904,5.501452547430833,216.3,2.5434362216508704,1.410537838673936,0
smt_37903,5.501137682846244,216.3,2.5432906531882775,1.4105360658768564,0
smt_13546,4.148007543362909,163.8,2.5323611375841932,1.483696615364548,0
smt_21225,4.147729462447448,163.8,2.532191369015536,1.483733708537091,0
smt_13930,4.147229429021561,163.8,2.5318860983037608,1.4837324909044376,0
smt_21226,4.146733339414171,163.8,2.531583235295586,1.4837126265956673,0
smt_13280,4.146354018572439,163.8,2.5313516596901335,1.4837107555080982,0
smt_14437,4.145993090516128,163.8,2.5311313128914086,1.483713367625807,0
smt_13955,4.145629359151423,163.8,2.530909254671198,1.4837171037160541,0
smt_26469,4.145261049510202,163.8,2.530684401410379,1.4837122361600406,0
smt_20808,4.144939317062045,163.8,2.530487983554362,1.4837188787231874,0
smt_23095,4.144602571308854,163.8,2.530282400066455,1.4836922540194817,0
smt_20807,4.144432813534793,163.8,2.530178762841754,1.4837301926217445,0
smt_13717,4.144075044351713,163.8,2.5299603445370655,1.4837224205771318,0
smt_37963,5.459098774741615,216.3,2.5238551894320915,1.3889521693088758,0
smt_37983,5.458659520801795,216.3,2.5236521131769742,1.3889547640842554,0
smt_37984,5.458213248996001,216.3,2.5234457924160894,1.3889560061161312,0
smt_37985,5.457774394223254,216.3,2.523242900704232,1.3889578004086094,0
smt_37947,5.4573428508679,216.3,2.523043389213084,1.388955951236154,0
smt_37948,5.456948253059301,216.3,2.5228609584185393,1.388960978052167,0
sbt_21281,4.123013442199155,163.8,2.5171022235648075,1.1826505472383766,0
smt_14797,4.098948118592327,163.8,2.5024103288109445,1.4672272869790184,0
smt_23041,4.098586672418896,163.8,2.5021896657014016,1.4672227523680637,0
smt_14823,4.0982205791738044,163.8,2.501966165551773,1.4672188517263784,0
smt_13752,4.097849389756299,163.8,2.5017395541857748,1.4671553743582024,0
smt_23225,4.081591529809733,163.8,2.4918141207629625,1.4606333818685586,0
smt_21220,4.081199822565901,163.8,2.491574983251466,1.4606238328554746,0
smt_14845,4.080790892518345,163.8,2.491325331207781,1.4606143755157832,0
smt_26425,4.080367847421435,163.8,2.491067061917848,1.4606030006638802,0
smt_20810,4.079947792679842,163.8,2.490810618241662,1.4605825141969406,0
smt_26429,4.079594303757809,163.8,2.4905948130389555,1.4605746883686892,0
smt_26430,4.079243934251421,163.8,2.4903809122414047,1.4605678183651676,0
rbt_605989,2.244221003774082,90.3,2.485294577822904,1.1680198940284365,0
smt_21222,4.067854546484795,163.8,2.483427684056651,1.4545492674216736,0
smt_14301,4.0675663643124365,163.8,2.483251748664491,1.4545500020920137,0
smt_23277,4.067202477350162,163.8,2.4830295954518693,1.454533672957831,0
smt_26427,4.066860413293977,163.8,2.4828207651367378,1.4545251071793472,0
smt_20812,4.066500129119621,163.8,2.4826008114283398,1.4545139801637308,0
smt_15154,4.0661392814559045,163.8,2.482380513709343,1.4545002322803118,0
smt_14674,4.065799189971202,163.8,2.482172887650306,1.4545020298572204,0
rbt_1121173,2.2406251400998936,90.3,2.481312447508188,1.1670374122031213,0
rbt_605807,2.2348651293388633,90.3,2.4749336980496826,1.1642827558722209,0
rbt_606130,1.8822027915127462,76.65,2.455580941308214,1.1538177733600017,0
sbt_3491,4.01607726686683,163.8,2.451817623239823,1.152458701223826,0
rbt_637399,1.5099860316868723,61.95,2.437427008372675,1.1453598558887255,0
sbt_21191,3.9837993938923186,163.8,2.4321119620832223,1.1434145556049204,0
sbt_26310,3.9312280223671667,163.8,2.4000171076722627,1.1284659966945936,0
rbt_637705,2.154615272507718,90.3,2.3860634247040067,1.8073887749390278,0
rbt_1105833,2.147980646322831,90.3,2.378716108884641,1.1181107761239761,0
smt_29426,5.134379199931948,216.3,2.3737305593767672,1.3010660975332422,0
rbt_1607276,2.139019371047374,90.3,2.368792215999307,1.1130212650744948,0
smt_37960,5.052693149446163,216.3,2.3359653950282766,1.3170022625653326,0
smt_37962,5.0523171031801075,216.3,2.3357915409986627,1.3170065563562559,0
rbt_1607319,2.105921664077338,90.3,2.3321391628763433,1.656543039504256,0
rbt_622709,2.1033468358571974,90.3,2.3292877473501634,1.0950451013738545,0
smt_37981,5.035878014903362,216.3,2.3281914077223123,1.2950646661293195,0
smt_37951,5.0355252959735735,216.3,2.328028338406645,1.2950683080285017,0
smt_37952,5.035172093597375,216.3,2.3278650455836223,1.2950840189351887,0
smt_37953,5.0347374739539665,216.3,2.3276641118603636,1.2950873080528378,0
smt_37954,5.034318963120543,216.3,2.3274706255758404,1.2971221775048245,0
smt_37955,5.0338650026293585,216.3,2.3272607501753853,1.2971159236035028,0
rbt_1607328,2.1014159968168875,90.3,2.3271494981360883,1.0942167955875657,0
smt_37956,5.033500146026291,216.3,2.3270920693602823,1.2971316362071295,0
smt_37957,5.033068773962204,216.3,2.3268926370606584,1.2971389215592024,0
smt_37958,5.032640042391229,216.3,2.3266944255160555,1.2971483992876713,0
smt_37959,5.0322033242079165,216.3,2.3264925215940435,1.2971562200487798,0
rbt_607366,2.1002209994563437,90.3,2.3258261345031492,1.0929650723390394,0
sbt_21953,3.7473738582858767,163.8,2.2877740282575556,1.0765898144046038,0
sbt_21849,3.7473737978559036,163.8,2.2877739913650204,1.0765897968244598,0
sbt_21968,3.747373724653875,163.8,2.2877739466751374,1.0765897755765763,0
smt_37979,4.9234035862325864,216.3,2.276192134180576,1.2822733753667646,0
smt_37980,4.9230249008589295,216.3,2.276017060036491,1.282253717108255,0
rbt_1633892,2.0296870834797214,90.3,2.247715485581087,1.056385909216022,0
sbt_21137,3.6809866188970957,163.8,2.2472445780812547,1.0568345377560442,0
rbt_1134165,2.025128557347188,90.3,2.242667283883929,1.055219626835781,0
rbt_1131858,2.023857916648482,90.3,2.241260151327223,1.0542629040617726,0
smt_6074,6.419266596006269,286.65,2.2394092433302872,1.335886732664199,0
smt_6082,6.418820127060326,286.65,2.2392534892936777,1.3358227207363502,0
smt_6649,6.418380194023815,286.65,2.239100015358038,1.3357597895753301,0
smt_29408,6.417950128938452,286.65,2.238949983931084,1.3356988813922699,0
smt_6422,6.417519219634117,286.65,2.238799657992017,1.3356381545520009,0
smt_22683,6.417086166966576,286.65,2.238648584324639,1.335577255219177,0
smt_22793,6.400106823726496,286.65,2.232725213230942,1.3230646768258876,0
smt_22790,6.399653883295025,286.65,2.2325672015681235,1.3229950806374122,0
smt_29449,6.399381176441029,286.65,2.232472065739065,1.3237839334342882,0
smt_6370,6.3992167072999955,286.65,2.2324146894470593,1.322928624757686,0
smt_6401,6.398945368782679,286.65,2.2323200309725033,1.3237199763648884,0
smt_29409,6.398777325108184,286.65,2.23226140767772,1.3228626004347113,0
smt_21348,6.398507159901595,286.65,2.232167158521401,1.3236696934277892,0
smt_5650,6.398317073152402,286.65,2.232100845334869,1.3227929560570988,0
smt_6094,6.397862769287226,286.65,2.2319423580279873,1.3227216868795892,0
smt_29477,6.397513968521241,286.65,2.231820676267658,1.3226715981468733,0
smt_29450,6.397087755902509,286.65,2.2316719888025505,1.3226091863992373,0
smt_6231,6.396619241829344,286.65,2.2315085441581526,1.3225386887991628,0
smt_6340,6.396180257476683,286.65,2.2313554011779813,1.32247409879288,0
rbt_1607353,2.006046860206561,90.3,2.2215358363306326,1.0440756049080053,0
sbt_34390,3.62622556274321,163.8,2.2138129198676495,1.6769482158194071,0
smt_6581,6.338077971129015,286.65,2.2110859832998484,1.2991308702980457,0
smt_6701,6.337635790207306,286.65,2.210931725172617,1.2990691276424744,0
smt_21959,6.337150284387704,286.65,2.210762352830178,1.2989980604479596,0
smt_19219,6.329172777126298,286.65,2.2079793396568284,1.2889359729562753,0
smt_5952,6.328702656172619,286.65,2.2078153344401255,1.2888600364965417,0
smt_29478,6.328212470703948,286.65,2.20764432956705,1.2887794633179661,0
smt_22841,6.32778062711984,286.65,2.2074936776974847,1.2887106067301142,0
smt_6660,6.327314214204457,286.65,2.207330966057721,1.2886352800826562,0
smt_22845,6.29153821076241,286.65,2.1948502392333546,1.2675991397644528,0
smt_18913,6.290992408531735,286.65,2.194659832036189,1.2675094009996417,0
smt_5786,6.2904635044924655,286.65,2.194475319899692,1.2674216280985477,0
smt_29479,6.290008246572485,286.65,2.194316499763644,1.2673478961621176,0
smt_19224,6.289540445697365,286.65,2.1941533039237275,1.2672726458530266,0
smt_25183,4.734157149799915,216.3,2.1886995607026885,1.2034284231812598,0
smt_25117,4.733511544357204,216.3,2.188401083845217,1.2031313045127738,0
smt_25116,4.73284799064748,216.3,2.1880943091296716,1.202826263578889,0
smt_25115,4.732328894824715,216.3,2.1878543203073115,1.2025878706441147,0
smt_25114,4.731873361726406,216.3,2.1876437178577928,1.202378842545192,0
smt_25113,4.73134181567431,216.3,2.1873979730348174,1.2021351408564043,0
smt_25112,4.730780403596504,216.3,2.187138420525429,1.2018779880301487,0
smt_25111,4.730412633854247,216.3,2.186968392905338,1.2017096673974,0
smt_25110,4.730147017458188,216.3,2.1868455929071606,1.2015881669202146,0
smt_25109,4.729446522338719,216.3,2.1865217394076373,1.2012680092705685,0
smt_25108,4.728913274131271,216.3,2.186275207642751,1.2010245529870733,0
smt_25107,4.728195016274827,216.3,2.1859431420595596,1.200696989358153,0
smt_25106,4.72756799825037,216.3,2.1856532585531068,1.200411374582567,0
smt_25105,4.726926674109966,216.3,2.1853567610309597,1.2001195710042796,0
smt_29427,4.726285133582639,216.3,2.185060163468626,1.1998280018777088,0
smt_6407,4.725015572774015,216.3,2.1844732190356058,1.1992519949518434,0
smt_22794,4.724383820607202,216.3,2.184181146836432,1.1989658563775707,0
smt_6477,4.723686707890985,216.3,2.183858857092457,1.1986504947328331,0
smt_6641,4.722781226435708,216.3,2.1834402341357873,1.198241469533641,0
smt_6157,4.722145550576299,216.3,2.1831463479317144,1.197954727431694,0
smt_6694,4.7214277288304345,216.3,2.1828144839715367,1.1976313353844246,0
sbt_20633,3.471811239407955,163.8,2.1195428812014376,1.3988141059811747,0
smt_37973,4.5630750774990325,216.3,2.1096047515020953,1.2164836442486002,0
smt_37991,4.562912690105864,216.3,2.1095296764243474,1.2164958406651756,0
smt_37974,4.562683844359725,216.3,2.1094238762643203,1.216523281379173,0
smt_37990,4.562293813922439,216.3,2.109243557060767,1.2165259596526774,0
smt_37975,4.5619332250975635,216.3,2.1090768493285084,1.216537376983219,0
smt_37976,4.5615431520387935,216.3,2.1088965104201542,1.2165447202989825,0
smt_37977,4.561158613416384,216.3,2.108718730197126,1.216550503555825,0
smt_37978,4.56079279115666,216.3,2.108549602938816,1.2165653833017687,0
sbt_4619,4.538847340867458,216.3,2.0984037636927684,0.9863042893712648,0
smt_37970,4.521039343619636,216.3,2.0901707552564197,1.206877525429561,0
smt_37971,4.520528599208599,216.3,2.0899346274658335,1.2068485396627604,0
smt_37972,4.520264676395251,216.3,2.0898126104462555,1.2068676894062662,0
smt_37989,4.519888086880211,216.3,2.0896385052613087,1.2069521427883845,0
smt_37964,4.419601649398925,216.3,2.0432739941742604,1.1840583627769978,0
smt_37965,4.418270955078046,216.3,2.042658786443849,1.1840737647664448,0
smt_37994,4.418097358491508,216.3,2.0425785291222875,1.1840518955606996,0
smt_37995,4.418093247411725,216.3,2.042576628484385,1.184052257374454,0
smt_37996,4.4180882995659445,216.3,2.0425743409921147,1.1840952438969363,0
smt_37966,4.41778761579304,216.3,2.042435328614443,1.1841104361529389,0
smt_37967,4.41742014113136,216.3,2.042265437416255,1.1841189904324707,0
smt_37968,4.4170434773163,216.3,2.0420912978808596,1.184125906900462,0
smt_37969,4.416673924445983,216.3,2.041920445883487,1.1841214424374331,0
rbt_606110,1.2614524761998276,61.95,2.03624289943475,0.9567032067451046,0
rbt_1607284,1.8320195913310424,90.3,2.0288146083400247,0.9537358483131434,0
rbt_1607302,1.241603542014142,61.95,2.0042026505474446,0.9416322104747642,0
rbt_607382,1.7910477971728365,90.3,1.9834416358503173,0.9324475284006496,0
rbt_1607273,1.5190593560722794,76.65,1.981812597615498,0.9312022856572616,0
sbt_26614,3.2110371818440675,162.75,1.9729875157260015,1.4942614394118945,0
sbt_26512,3.211035586817826,162.75,1.9729865356791558,1.4942604483384683,0
sbt_16246,3.211035005731033,162.75,1.9729861786365794,1.4942600878170957,0
sbt_5828,3.2110322566883562,163.8,1.9603371530453944,1.484679806077405,0
sbt_3790,3.188061499855653,163.8,1.946313491975368,0.9143703660524435,0
rbt_1137150,1.1986756148345856,61.95,1.9349081756813329,0.9095816029691194,0
rbt_3405843,1.74236833304604,90.3,1.9295330377032558,0.9072887193531943,0
rbt_1607288,1.4644035349060491,76.65,1.9105068948545978,0.8979370774363393,0
rbt_605817,1.4568307870054786,76.65,1.9006272498440686,0.8933443356269645,0
smt_13591,3.0964679437624287,163.8,1.8903955700625326,0.9378027454205804,0
sbt_30492,2.351347269006615,124.95,1.8818305474242614,0.8843502399628512,0
rbt_607387,1.6905741541227401,90.3,1.8721751429930675,0.8797940583577604,0
sbt_21147,2.395319988085067,128.1,1.86988289467999,0.8786595482873708,0
sbt_17923,2.3953144907695947,128.1,1.869878603254953,0.8786552196646641,0
rbt_626695,1.6835259730198626,90.3,1.8643698483054958,1.4122501757688213,0
rbt_623432,1.6833727682823165,90.3,1.8642001863591546,0.8764920773282646,0
sbt_3473,3.0328862224648065,163.8,1.8515788903936545,0.8703318476628551,0
sbt_26790,3.994883623460946,216.3,1.8469179951275754,0.8683626984286335,0
smt_18691,5.2601316314348505,286.65,1.835036327031171,0.9651383426410973,0
smt_18692,5.259438994286066,286.65,1.8347946953727774,0.9649687630599472,0
smt_22142,5.258821710418354,286.65,1.8345793512710113,0.9648181257955936,0
smt_29410,5.258261623613464,286.65,1.8343839607931152,0.9646818502263589,0
smt_4821,5.257727379131402,286.65,1.8341975856031405,0.9645522214564712,0
smt_18693,5.257076906800479,286.65,1.833970663457345,0.9643948660668157,0
smt_5832,5.256477616837682,286.65,1.8337615966641136,0.9642503551019491,0
smt_18694,5.255850220706264,286.65,1.833542724823396,0.964099544049561,0
smt_5643,5.255297396283094,286.65,1.8333498678817703,0.9639670642125434,0
smt_29483,5.2547480664270205,286.65,1.8331582300460565,0.9638357997227814,0
smt_6014,5.254204102392457,286.65,1.8329684641173756,0.9637061897459916,0
smt_18695,5.253576722970986,286.65,1.8327495981060478,0.9635571659193539,0
smt_29482,5.2530190366705085,286.65,1.8325550450620998,0.9634251128988534,0
smt_6195,5.252434647193173,286.65,1.832351176414852,0.9632871586825825,0
smt_6105,5.251848291829992,286.65,1.8321466219535991,0.9631491755667053,0
smt_19334,5.219548510435268,286.65,1.820878601233305,0.9453092465791086,0
smt_19331,5.218930610813201,286.65,1.820663042321019,0.945123589734096,0
smt_22269,5.218323846305956,286.65,1.82045136797696,0.9449416365416082,0
sbt_34896,3.905495168500142,216.3,1.805591848589987,0.8487080853128952,0
sbt_34381,2.916822643819883,163.8,1.780722004774043,0.8370573296883879,0
rbt_605808,1.5784097644656432,90.3,1.7479620868944001,0.8212680400834899,0
rbt_1607326,1.5758398267861846,90.3,1.745116087249374,0.8204545291252265,0
smt_29480,4.982937324363804,286.65,1.7383350163487892,0.9612688606055757,0
smt_19271,4.981794139112173,286.65,1.73793620760934,0.9610430128225049,0
smt_5537,4.98134037660427,286.65,1.7377779091589989,0.9609538859860502,0
smt_40375,2.846113453069716,163.8,1.737554000653062,0.864666023838895,0
smt_40374,2.8455607905596345,163.8,1.7372165998532567,0.8643394755592464,0
smt_40358,2.8450110629337164,163.8,1.7368809908020244,0.8640154842705247,0
smt_40357,2.8444323549541815,163.8,1.7365276892272168,0.8636753052846254,0
smt_40356,2.843945009739861,163.8,1.7362301646763496,0.8633895458911912,0
smt_40355,2.8433885118572224,163.8,1.7358904223792566,0.8630640418375464,0
smt_40354,2.8428231169540443,163.8,1.7355452484456924,0.8627342165128763,0
smt_40353,2.8422512232054213,163.8,1.7351961069630166,0.8624015111364166,0
smt_40352,2.8417738530850096,163.8,1.7349046722130705,0.8621245017856602,0
smt_40351,2.841321513325539,163.8,1.73462851851376,0.8618626130953116,0
smt_40350,2.840768792592616,163.8,1.7342910821688742,0.86154339908206,0
smt_40349,2.840248402974186,163.8,1.7339733839891243,0.8612436578033525,0
smt_40373,2.8397154615288063,163.8,1.733648022911359,0.8609374971582023,0
smt_40348,2.8396918772018225,163.8,1.7336336246653372,0.8609239668226429,0
smt_40366,2.8392899759432337,163.8,1.7333882637016078,0.8560267416651685,0
smt_40380,2.839246412213037,163.8,1.7333616680177273,0.8559999450237067,0
smt_40347,2.839126306811068,163.8,1.7332883435965003,0.8606000010154983,0
smt_40367,2.838861141008419,163.8,1.7331264597120994,0.8557631560966596,0
smt_40346,2.8385640729137847,163.8,1.732945099458965,0.8602788723552873,0
smt_40368,2.838362405173182,163.8,1.7328219811802086,0.8554571920802644,0
smt_40369,2.838019920408356,163.8,1.7326128940221952,0.8552474529256319,0
smt_40345,2.8379933845299417,163.8,1.732596693852223,0.8599538649647505,0
smt_40344,2.837431483757275,163.8,1.7322536530874695,0.8596348033256213,0
smt_19274,4.962952809279554,286.65,1.7313632685433646,0.9494993848474796,0
smt_4942,4.9624190349558255,286.65,1.7311770573716472,0.9493924341242511,0
smt_40362,2.8354067482050507,163.8,1.7310175507967343,0.8536571277465099,0
smt_18740,4.961898277965193,286.65,1.730995387394102,0.9492884769552762,0
smt_5191,4.961379990296004,286.65,1.7308145788578422,0.9491853917341175,0
smt_40378,2.83507349017558,163.8,1.730814096566288,0.8534555996601249,0
smt_5198,4.96086666233259,286.65,1.7306355005520986,0.9490836667720957,0
smt_40361,2.8345329283473357,163.8,1.7304840832401316,0.8531293386644832,0
smt_5549,4.960300987107324,286.65,1.7304381605118873,0.9489720020867582,0
smt_19273,4.959722509072871,286.65,1.730236354115776,0.9488583138952755,0
smt_40360,2.83396734189893,163.8,1.730138792368089,0.8527888102328612,0
smt_5414,4.959236963306562,286.65,1.7300669678376286,0.9487632705328028,0
smt_5522,4.958697158221739,286.65,1.7298786527897223,0.9486580000381176,0
smt_40359,2.8334332291645152,163.8,1.7298127162176526,0.8524680217752897,0
smt_40377,2.8327727931350135,163.8,1.7294095196184454,0.85207243224156,0
smt_40376,2.8322182631096924,163.8,1.7290709786994456,0.8517411973606773,0
smt_40861,4.935448579410998,286.65,1.7217682118998774,0.9340372164800731,0
smt_40860,4.935099514050828,286.65,1.721646437833884,0.9339668461827003,0
smt_40859,4.934732596882775,286.65,1.7215184360309697,0.9338930635648883,0
...